Version 4
SHEET 1 1268 1064
WIRE 400 -208 160 -208
WIRE 832 -208 480 -208
WIRE 592 -160 560 -160
WIRE 704 -160 672 -160
WIRE 160 -80 160 -208
WIRE 208 -80 160 -80
WIRE 352 -80 288 -80
WIRE 704 -48 704 -160
WIRE 704 -48 656 -48
WIRE 736 -48 704 -48
WIRE 832 -48 832 -208
WIRE 832 -48 816 -48
WIRE 560 -32 560 -160
WIRE 560 -32 544 -32
WIRE 592 -32 560 -32
WIRE 704 -16 656 -16
WIRE 160 0 160 -80
WIRE 208 0 160 0
WIRE 352 0 352 -80
WIRE 352 0 272 0
WIRE 704 16 704 -16
WIRE 592 80 560 80
WIRE 0 96 -160 96
WIRE 32 96 0 96
WIRE 160 96 160 0
WIRE 160 96 96 96
WIRE 208 96 160 96
WIRE 832 96 832 -48
WIRE 832 96 656 96
WIRE 352 112 352 0
WIRE 352 112 272 112
WIRE 384 112 352 112
WIRE 480 112 480 -32
WIRE 480 112 464 112
WIRE 592 112 480 112
WIRE 208 128 176 128
WIRE 176 144 176 128
WIRE -160 160 -160 96
WIRE 560 160 560 80
WIRE 352 176 352 112
WIRE 928 176 352 176
WIRE 1056 176 1008 176
WIRE 1056 208 1056 176
WIRE 0 240 0 96
WIRE 192 240 0 240
WIRE 480 240 480 112
WIRE 480 240 272 240
WIRE -160 272 -160 240
WIRE 1056 304 1056 272
FLAG 704 16 0
FLAG 560 160 0
FLAG 176 144 0
FLAG -160 272 0
FLAG 1056 304 0
FLAG 1056 176 Vout
SYMBOL res 304 -96 R90
WINDOW 0 -2 106 VBottom 2
WINDOW 3 33 8 VTop 2
SYMATTR InstName R2
SYMATTR Value 1
SYMBOL res 480 96 R90
WINDOW 0 0 56 VBottom 2
WINDOW 3 32 56 VTop 2
SYMATTR InstName R3
SYMATTR Value 1
SYMBOL res 496 -224 R90
WINDOW 0 0 56 VBottom 2
WINDOW 3 32 56 VTop 2
SYMATTR InstName R4
SYMATTR Value 1
SYMBOL res 688 -176 R90
WINDOW 0 0 56 VBottom 2
WINDOW 3 32 56 VTop 2
SYMATTR InstName R5
SYMATTR Value 1k
SYMBOL res 832 -64 R90
WINDOW 0 0 56 VBottom 2
WINDOW 3 32 56 VTop 2
SYMATTR InstName R6
SYMATTR Value 1k
SYMBOL cap 272 -16 R90
WINDOW 0 8 66 VBottom 2
WINDOW 3 21 7 VTop 2
SYMATTR InstName C1
SYMATTR Value 1
SYMBOL cap 544 -48 R90
WINDOW 0 0 32 VBottom 2
WINDOW 3 32 32 VTop 2
SYMATTR InstName C2
SYMATTR Value 1
SYMBOL Opamps\\opamp 240 48 R0
SYMATTR InstName U1
SYMBOL Opamps\\opamp 624 32 R0
SYMATTR InstName U2
SYMBOL Opamps\\opamp 624 32 R180
SYMATTR InstName U3
SYMBOL voltage -160 144 R0
WINDOW 3 24 152 Left 2
WINDOW 123 41 51 Left 2
WINDOW 39 0 0 Left 2
SYMATTR Value ""
SYMATTR Value2 AC 1
SYMATTR InstName V1
SYMBOL res 288 224 R90
WINDOW 0 0 56 VBottom 2
WINDOW 3 32 56 VTop 2
SYMATTR InstName R7
SYMATTR Value 1
SYMBOL cap 96 80 R90
WINDOW 0 0 32 VBottom 2
WINDOW 3 32 32 VTop 2
SYMATTR InstName C3
SYMATTR Value 0.1111
SYMBOL res 1024 160 R90
WINDOW 0 0 56 VBottom 2
WINDOW 3 32 56 VTop 2
SYMATTR InstName R1
SYMATTR Value 1
SYMBOL cap 1040 208 R0
SYMATTR InstName C4
SYMATTR Value 1
TEXT 912 -168 Left 2 !.lib opamp.sub
TEXT 912 -128 Left 2 !.ac dec 100 0.05 10
TEXT 880 80 Left 2 ;ETAPA PASABAJOS
TEXT 104 -288 Left 2 ;Ackerberg-Mossberg con prealimentación
RECTANGLE Normal 1120 336 880 112 1
RECTANGLE Normal 848 -256 -208 304 1
