Version 4
SHEET 1 2820 1064
WIRE 416 -864 176 -864
WIRE 848 -864 496 -864
WIRE 608 -816 576 -816
WIRE 720 -816 688 -816
WIRE 176 -736 176 -864
WIRE 224 -736 176 -736
WIRE 368 -736 304 -736
WIRE 720 -704 720 -816
WIRE 720 -704 672 -704
WIRE 752 -704 720 -704
WIRE 848 -704 848 -864
WIRE 848 -704 832 -704
WIRE 576 -688 576 -816
WIRE 576 -688 560 -688
WIRE 608 -688 576 -688
WIRE 720 -672 672 -672
WIRE 176 -656 176 -736
WIRE 224 -656 176 -656
WIRE 368 -656 368 -736
WIRE 368 -656 288 -656
WIRE 720 -640 720 -672
WIRE 608 -576 576 -576
WIRE 16 -560 -144 -560
WIRE 48 -560 16 -560
WIRE 176 -560 176 -656
WIRE 176 -560 112 -560
WIRE 224 -560 176 -560
WIRE 848 -560 848 -704
WIRE 848 -560 672 -560
WIRE 368 -544 368 -656
WIRE 368 -544 288 -544
WIRE 400 -544 368 -544
WIRE 496 -544 496 -688
WIRE 496 -544 480 -544
WIRE 608 -544 496 -544
WIRE 224 -528 192 -528
WIRE 192 -512 192 -528
WIRE -144 -496 -144 -560
WIRE 576 -496 576 -576
WIRE 368 -480 368 -544
WIRE 16 -416 16 -560
WIRE 208 -416 16 -416
WIRE 496 -416 496 -544
WIRE 496 -416 288 -416
WIRE -144 -384 -144 -416
WIRE 1472 -176 1408 -176
WIRE 1584 -176 1552 -176
WIRE 480 -112 448 -112
WIRE 2576 -112 2512 -112
WIRE 2672 -112 2640 -112
WIRE 624 -96 544 -96
WIRE 768 -96 624 -96
WIRE 1072 -96 768 -96
WIRE 1392 -96 1152 -96
WIRE 1408 -96 1408 -176
WIRE 1408 -96 1392 -96
WIRE 1472 -96 1408 -96
WIRE 480 -80 0 -80
WIRE 1584 -80 1584 -176
WIRE 1584 -80 1536 -80
WIRE 1648 -80 1584 -80
WIRE 1776 -80 1712 -80
WIRE 2672 -80 2672 -112
WIRE 1472 -64 1440 -64
WIRE 2512 -64 2512 -112
WIRE 1440 -32 1440 -64
WIRE 1776 -32 1776 -80
WIRE 1392 -16 1392 -96
WIRE -112 16 -240 16
WIRE 0 16 0 -80
WIRE 0 16 -48 16
WIRE 48 16 0 16
WIRE 48 32 48 16
WIRE 96 32 48 32
WIRE 256 32 176 32
WIRE 304 32 256 32
WIRE 448 32 448 -112
WIRE 448 32 368 32
WIRE 480 32 448 32
WIRE 624 32 624 -96
WIRE 624 32 560 32
WIRE 640 32 624 32
WIRE 784 32 704 32
WIRE 2672 48 2672 0
WIRE -240 64 -240 16
WIRE 0 64 0 16
WIRE 1360 64 1264 64
WIRE 2512 64 2512 16
WIRE 960 96 928 96
WIRE 1040 96 1024 96
WIRE 1072 96 1040 96
WIRE 1248 96 1072 96
WIRE 1264 96 1264 64
WIRE 1280 96 1264 96
WIRE 1776 96 1776 48
WIRE 1072 112 1072 96
WIRE 1184 112 1072 112
WIRE 1360 112 1360 64
WIRE 1360 112 1344 112
WIRE 1392 112 1392 64
WIRE 1392 112 1360 112
WIRE 1072 128 1072 112
WIRE 1248 128 1248 96
WIRE 1280 128 1248 128
WIRE 784 144 784 32
WIRE 784 144 384 144
WIRE 0 160 0 144
WIRE 256 160 256 32
WIRE 320 160 256 160
WIRE -240 176 -240 144
WIRE 448 176 448 32
WIRE 448 176 384 176
WIRE 1184 192 1072 192
WIRE 1072 224 1072 192
WIRE -112 256 -112 16
WIRE 336 256 -112 256
WIRE 784 256 784 144
WIRE 784 256 416 256
FLAG 720 -640 0
FLAG 576 -496 0
FLAG 192 -512 0
FLAG -144 -384 0
FLAG 0 160 0
FLAG -240 176 0
FLAG 2512 64 0
FLAG 2672 48 0
FLAG 1072 224 0
FLAG 1072 96 Vout
FLAG 2672 -112 V_LP
FLAG 768 -96 Vout-
FLAG -240 16 VIN
FLAG 928 96 VIN
FLAG 1440 -32 0
FLAG 1776 96 0
SYMBOL res 320 -752 R90
WINDOW 0 -2 106 VBottom 2
WINDOW 3 33 8 VTop 2
SYMATTR InstName R2
SYMATTR Value 1
SYMBOL res 496 -560 R90
WINDOW 0 0 56 VBottom 2
WINDOW 3 32 56 VTop 2
SYMATTR InstName R3
SYMATTR Value 1
SYMBOL res 512 -880 R90
WINDOW 0 0 56 VBottom 2
WINDOW 3 32 56 VTop 2
SYMATTR InstName R4
SYMATTR Value 1
SYMBOL res 704 -832 R90
WINDOW 0 0 56 VBottom 2
WINDOW 3 32 56 VTop 2
SYMATTR InstName R5
SYMATTR Value 1k
SYMBOL res 848 -720 R90
WINDOW 0 0 56 VBottom 2
WINDOW 3 32 56 VTop 2
SYMATTR InstName R6
SYMATTR Value 1k
SYMBOL cap 288 -672 R90
WINDOW 0 8 66 VBottom 2
WINDOW 3 21 7 VTop 2
SYMATTR InstName C1
SYMATTR Value 1
SYMBOL cap 560 -704 R90
WINDOW 0 0 32 VBottom 2
WINDOW 3 32 32 VTop 2
SYMATTR InstName C2
SYMATTR Value 1
SYMBOL Opamps\\opamp 256 -608 R0
SYMATTR InstName U1
SYMBOL Opamps\\opamp 640 -624 R0
SYMATTR InstName U2
SYMBOL Opamps\\opamp 640 -624 R180
SYMATTR InstName U3
SYMBOL voltage -144 -512 R0
WINDOW 3 24 152 Left 2
WINDOW 123 41 51 Left 2
WINDOW 39 0 0 Left 2
SYMATTR Value ""
SYMATTR Value2 AC 1
SYMATTR InstName V1
SYMBOL res 304 -432 R90
WINDOW 0 0 56 VBottom 2
WINDOW 3 32 56 VTop 2
SYMATTR InstName R7
SYMATTR Value 1
SYMBOL cap 112 -576 R90
WINDOW 0 0 32 VBottom 2
WINDOW 3 32 32 VTop 2
SYMATTR InstName C3
SYMATTR Value 0.1111
SYMBOL res 192 16 R90
WINDOW 0 0 56 VBottom 2
WINDOW 3 32 56 VTop 2
SYMATTR InstName R8
SYMATTR Value 0.889
SYMBOL res 576 16 R90
WINDOW 0 0 56 VBottom 2
WINDOW 3 32 56 VTop 2
SYMATTR InstName R10
SYMATTR Value 1.125
SYMBOL res 16 160 R180
WINDOW 0 36 76 Left 0
WINDOW 3 36 40 Left 0
SYMATTR InstName R11
SYMATTR Value 1
SYMBOL cap -48 0 R90
WINDOW 0 0 32 VBottom 2
WINDOW 3 32 32 VTop 2
SYMATTR InstName C5
SYMATTR Value 0.999
SYMBOL opamp 512 -160 R0
SYMATTR InstName U4
SYMBOL opamp 352 224 R180
SYMATTR InstName U5
SYMBOL res 432 240 R90
WINDOW 0 0 56 VBottom 2
WINDOW 3 32 56 VTop 2
SYMATTR InstName R12
SYMATTR Value 1.125
SYMBOL voltage -240 48 R0
WINDOW 123 24 124 Left 2
WINDOW 39 0 0 Left 0
SYMATTR InstName V2
SYMATTR Value ""
SYMATTR Value2 AC 1
SYMBOL cap 2640 -128 R90
WINDOW 0 0 32 VBottom 2
WINDOW 3 32 32 VTop 2
SYMATTR InstName C7
SYMATTR Value 1
SYMBOL res 2656 -96 R0
SYMATTR InstName R13
SYMATTR Value 1
SYMBOL voltage 2512 -80 R0
WINDOW 123 24 44 Left 2
WINDOW 39 0 0 Left 0
SYMATTR InstName V3
SYMATTR Value ""
SYMATTR Value2 AC 1
SYMBOL res 720 16 R90
WINDOW 0 0 56 VBottom 2
WINDOW 3 32 56 VTop 2
SYMATTR InstName R1
SYMATTR Value 1.125
SYMBOL cap 368 16 R90
WINDOW 0 0 32 VBottom 2
WINDOW 3 32 32 VTop 2
SYMATTR InstName C4
SYMATTR Value 0.999
SYMBOL res 1056 80 R90
WINDOW 0 0 56 VBottom 2
WINDOW 3 32 56 VTop 2
SYMATTR InstName R9
SYMATTR Value 1
SYMBOL cap 1056 128 R0
SYMATTR InstName C6
SYMATTR Value 1
SYMBOL ind 1168 96 R0
SYMATTR InstName L1
SYMATTR Value 1
SYMBOL opamp 1504 -144 R0
SYMATTR InstName U6
SYMBOL res 1568 -192 R90
WINDOW 0 0 56 VBottom 2
WINDOW 3 32 56 VTop 2
SYMATTR InstName R14
SYMATTR Value 1
SYMBOL opamp 1312 48 R0
SYMATTR InstName U7
SYMBOL res 1376 -32 R0
SYMATTR InstName R15
SYMATTR Value 1
SYMBOL res 1168 -112 R90
WINDOW 0 0 56 VBottom 2
WINDOW 3 32 56 VTop 2
SYMATTR InstName R16
SYMATTR Value 1
SYMBOL cap 1712 -96 R90
WINDOW 0 0 32 VBottom 2
WINDOW 3 32 32 VTop 2
SYMATTR InstName C8
SYMATTR Value 1
SYMBOL res 1760 -48 R0
SYMATTR InstName R17
SYMATTR Value 1
TEXT 608 -200 Left 2 !.lib opamp.sub
TEXT 608 -160 Left 2 !.ac dec 100 0.005 1
TEXT 192 -272 Left 4 ;Circuito GIC
TEXT 896 0 Left 3 ;ETAPA PASABAJOS
TEXT 2376 -208 Left 3 ;ETAPA PASABAJOS AISLADA
RECTANGLE Normal 1136 256 896 32 1
RECTANGLE Normal 848 -240 -288 304 1
RECTANGLE Normal 2736 -176 2464 96 1
