Version 4
SHEET 1 1124 680
WIRE 0 -32 -32 -32
WIRE 144 -32 64 -32
WIRE 240 -32 144 -32
WIRE 144 0 144 -32
WIRE 240 0 240 -32
WIRE -32 48 -32 -32
WIRE 144 96 144 64
WIRE 240 96 240 64
WIRE -32 208 -32 128
WIRE 144 208 144 176
WIRE 144 208 -32 208
WIRE 240 208 240 176
WIRE 240 208 144 208
WIRE 144 224 144 208
FLAG 144 224 0
SYMBOL cap 64 -48 R90
WINDOW 0 0 32 VBottom 2
WINDOW 3 32 32 VTop 2
SYMATTR InstName C1
SYMATTR Value 1
SYMBOL cap 160 64 R180
WINDOW 0 24 56 Left 2
WINDOW 3 24 8 Left 2
SYMATTR InstName C2
SYMATTR Value 2
SYMBOL cap 256 64 R180
WINDOW 0 24 56 Left 2
WINDOW 3 24 8 Left 2
SYMATTR InstName C3
SYMATTR Value 0.333
SYMBOL ind 128 80 R0
SYMATTR InstName L1
SYMATTR Value 0.5
SYMBOL ind 224 80 R0
SYMATTR InstName L2
SYMATTR Value 1
SYMBOL voltage -32 32 R0
WINDOW 123 24 124 Left 2
WINDOW 39 0 0 Left 0
SYMATTR InstName V1
SYMATTR Value ""
SYMATTR Value2 AC 1
TEXT -66 248 Left 2 !.ac dec 100 100m 1
TEXT 56 -112 Left 2 ;PUNTO 2
